{
   "completed_at" : "20211013T170639Z",
   "completed_status" : "Success",
   "created_at" : "20200916T145614Z",
   "current_step" : 1,
   "eplusout_err" : "Program Version,EnergyPlus, Version 9.5.0-de239b2e5f, YMD=2021.10.13 19:03,\n   ************* Beginning Zone Sizing Calculations\n   ** Warning ** ProcessScheduleInput: Schedule:Compact=\"SHADING_SCH\", Blank Schedule Type Limits Name input -- will not be validated.\n   ** Warning ** ProcessScheduleInput: Schedule:Constant=\"VAV_BOT WITH REHEAT MAX OA FRACTION\", Blank Schedule Type Limits Name input -- will not be validated.\n   ** Warning ** ProcessScheduleInput: Schedule:Constant=\"VAV_MID WITH REHEAT MAX OA FRACTION\", Blank Schedule Type Limits Name input -- will not be validated.\n   ** Warning ** ProcessScheduleInput: Schedule:Constant=\"VAV_TOP WITH REHEAT MAX OA FRACTION\", Blank Schedule Type Limits Name input -- will not be validated.\n   ** Warning ** ProcessScheduleInput: Schedule:Constant=\"ALWAYS OFF DISCRETE\", Blank Schedule Type Limits Name input -- will not be validated.\n   ** Warning ** ProcessScheduleInput: Schedule:Constant=\"ALWAYS ON CONTINUOUS\", Blank Schedule Type Limits Name input -- will not be validated.\n   ** Warning ** CheckUsedConstructions: There are 36 nominally unused constructions in input.\n   **   ~~~   ** For explicit details on each unused construction, use Output:Diagnostics,DisplayExtraWarnings;\n   ** Warning ** MapShadeDeploymentOrderToLoopNumber: found unassociated window for zone GROUNDFLOOR_OFFICES_E_TZ\n   ** Warning ** MapShadeDeploymentOrderToLoopNumber: found unassociated window for zone GROUNDFLOOR_OFFICES_E_TZ\n   ** Warning ** MapShadeDeploymentOrderToLoopNumber: found unassociated window for zone GROUNDFLOOR_OFFICES_E_TZ\n   ** Warning ** MapShadeDeploymentOrderToLoopNumber: found unassociated window for zone GROUNDFLOOR_OFFICES_E_TZ\n   ** Warning ** MapShadeDeploymentOrderToLoopNumber: too many controlled shaded windows in zone GROUNDFLOOR_OFFICES_E_TZ\n   ** Warning ** MapShadeDeploymentOrderToLoopNumber: found unassociated window for zone GROUNDFLOOR_OFFICES_E_TZ\n   ** Warning ** MapShadeDeploymentOrderToLoopNumber: too many controlled shaded windows in zone GROUNDFLOOR_OFFICES_E_TZ\n   ** Warning ** MapShadeDeploymentOrderToLoopNumber: found unassociated window for zone GROUNDFLOOR_OFFICES_E_TZ\n   ** Warning ** MapShadeDeploymentOrderToLoopNumber: too many controlled shaded windows in zone GROUNDFLOOR_OFFICES_E_TZ\n   ** Warning ** MapShadeDeploymentOrderToLoopNumber: too many controlled shaded windows in zone GROUNDFLOOR_OFFICES_E_TZ\n   ** Warning ** MapShadeDeploymentOrderToLoopNumber: too many controlled shaded windows in zone GROUNDFLOOR_OFFICES_E_TZ\n   ** Warning ** MapShadeDeploymentOrderToLoopNumber: too many controlled shaded windows in zone GROUNDFLOOR_OFFICES_E_TZ\n   ** Warning ** MapShadeDeploymentOrderToLoopNumber: too many controlled shaded windows in zone GROUNDFLOOR_OFFICES_E_TZ\n   ** Warning ** MapShadeDeploymentOrderToLoopNumber: found unassociated window for zone GROUNDFLOOR_OFFICES_E_TZ\n   ** Warning ** MapShadeDeploymentOrderToLoopNumber: too many controlled shaded windows in zone GROUNDFLOOR_OFFICES_E_TZ\n   ** Warning ** MapShadeDeploymentOrderToLoopNumber: found unassociated window for zone GROUNDFLOOR_OFFICES_E_TZ\n   ** Warning ** MapShadeDeploymentOrderToLoopNumber: too many controlled shaded windows in zone GROUNDFLOOR_OFFICES_E_TZ\n   ** Warning ** MapShadeDeploymentOrderToLoopNumber: found unassociated window for zone GROUNDFLOOR_OFFICES_E_TZ\n   ** Warning ** MapShadeDeploymentOrderToLoopNumber: too many controlled shaded windows in zone GROUNDFLOOR_OFFICES_E_TZ\n   ** Warning ** MapShadeDeploymentOrderToLoopNumber: found unassociated window for zone GROUNDFLOOR_OFFICES_E_TZ\n   ** Warning ** MapShadeDeploymentOrderToLoopNumber: too many controlled shaded windows in zone GROUNDFLOOR_OFFICES_E_TZ\n   ** Warning ** MapShadeDeploymentOrderToLoopNumber: found unassociated window for zone GROUNDFLOOR_OFFICES_E_TZ\n   ** Warning ** MapShadeDeploymentOrderToLoopNumber: too many controlled shaded windows in zone GROUNDFLOOR_OFFICES_E_TZ\n   ** Warning ** MapShadeDeploymentOrderToLoopNumber: found unassociated window for zone GROUNDFLOOR_OFFICES_E_TZ\n   ** Warning ** MapShadeDeploymentOrderToLoopNumber: too many controlled shaded windows in zone GROUNDFLOOR_OFFICES_E_TZ\n   ** Warning ** MapShadeDeploymentOrderToLoopNumber: too many controlled shaded windows in zone GROUNDFLOOR_OFFICES_E_TZ\n   ** Warning ** MapShadeDeploymentOrderToLoopNumber: too many controlled shaded windows in zone GROUNDFLOOR_OFFICES_E_TZ\n   ** Warning ** MapShadeDeploymentOrderToLoopNumber: too many controlled shaded windows in zone GROUNDFLOOR_OFFICES_E_TZ\n   ** Warning ** MapShadeDeploymentOrderToLoopNumber: too many controlled shaded windows in zone GROUNDFLOOR_OFFICES_E_TZ\n   ** Warning ** MapShadeDeploymentOrderToLoopNumber: found unassociated window for zone GROUNDFLOOR_OFFICES_E_TZ\n   ** Warning ** MapShadeDeploymentOrderToLoopNumber: too many controlled shaded windows in zone GROUNDFLOOR_OFFICES_E_TZ\n   ** Warning ** MapShadeDeploymentOrderToLoopNumber: found unassociated window for zone GROUNDFLOOR_OFFICES_E_TZ\n   ** Warning ** MapShadeDeploymentOrderToLoopNumber: too many controlled shaded windows in zone GROUNDFLOOR_OFFICES_E_TZ\n   ** Warning ** MapShadeDeploymentOrderToLoopNumber: found unassociated window for zone GROUNDFLOOR_OFFICES_E_TZ\n   ** Warning ** MapShadeDeploymentOrderToLoopNumber: too many controlled shaded windows in zone GROUNDFLOOR_OFFICES_E_TZ\n   ** Warning ** MapShadeDeploymentOrderToLoopNumber: found unassociated window for zone GROUNDFLOOR_OFFICES_E_TZ\n   ** Warning ** MapShadeDeploymentOrderToLoopNumber: too many controlled shaded windows in zone GROUNDFLOOR_OFFICES_E_TZ\n   ** Warning ** MapShadeDeploymentOrderToLoopNumber: found unassociated window for zone GROUNDFLOOR_OFFICES_E_TZ\n   ** Warning ** MapShadeDeploymentOrderToLoopNumber: too many controlled shaded windows in zone GROUNDFLOOR_OFFICES_E_TZ\n   ** Warning ** MapShadeDeploymentOrderToLoopNumber: found unassociated window for zone GROUNDFLOOR_OFFICES_E_TZ\n   ** Warning ** MapShadeDeploymentOrderToLoopNumber: too many controlled shaded windows in zone GROUNDFLOOR_OFFICES_E_TZ\n   ** Warning ** MapShadeDeploymentOrderToLoopNumber: too many controlled shaded windows in zone GROUNDFLOOR_OFFICES_E_TZ\n   ** Warning ** MapShadeDeploymentOrderToLoopNumber: too many controlled shaded windows in zone GROUNDFLOOR_OFFICES_E_TZ\n   ** Warning ** MapShadeDeploymentOrderToLoopNumber: too many controlled shaded windows in zone GROUNDFLOOR_OFFICES_E_TZ\n   ** Warning ** MapShadeDeploymentOrderToLoopNumber: too many controlled shaded windows in zone GROUNDFLOOR_OFFICES_E_TZ\n   ** Warning ** MapShadeDeploymentOrderToLoopNumber: found unassociated window for zone GROUNDFLOOR_OFFICES_E_TZ\n   ** Warning ** MapShadeDeploymentOrderToLoopNumber: too many controlled shaded windows in zone GROUNDFLOOR_OFFICES_E_TZ\n   ** Warning ** MapShadeDeploymentOrderToLoopNumber: found unassociated window for zone GROUNDFLOOR_OFFICES_E_TZ\n   ** Warning ** MapShadeDeploymentOrderToLoopNumber: too many controlled shaded windows in zone GROUNDFLOOR_OFFICES_E_TZ\n   ** Warning ** MapShadeDeploymentOrderToLoopNumber: found unassociated window for zone GROUNDFLOOR_OFFICES_E_TZ\n   ** Warning ** MapShadeDeploymentOrderToLoopNumber: too many controlled shaded windows in zone GROUNDFLOOR_OFFICES_E_TZ\n   ** Warning ** MapShadeDeploymentOrderToLoopNumber: found unassociated window for zone GROUNDFLOOR_OFFICES_E_TZ\n   ** Warning ** MapShadeDeploymentOrderToLoopNumber: too many controlled shaded windows in zone GROUNDFLOOR_OFFICES_E_TZ\n   ** Warning ** MapShadeDeploymentOrderToLoopNumber: found unassociated window for zone GROUNDFLOOR_OFFICES_E_TZ\n   ** Warning ** MapShadeDeploymentOrderToLoopNumber: too many controlled shaded windows in zone GROUNDFLOOR_OFFICES_E_TZ\n   ** Warning ** MapShadeDeploymentOrderToLoopNumber: found unassociated window for zone GROUNDFLOOR_OFFICES_E_TZ\n   ** Warning ** MapShadeDeploymentOrderToLoopNumber: too many controlled shaded windows in zone GROUNDFLOOR_OFFICES_E_TZ\n   ** Warning ** MapShadeDeploymentOrderToLoopNumber: too many controlled shaded windows in zone GROUNDFLOOR_OFFICES_E_TZ\n   ** Warning ** MapShadeDeploymentOrderToLoopNumber: too many controlled shaded windows in zone GROUNDFLOOR_OFFICES_E_TZ\n   ** Warning ** MapShadeDeploymentOrderToLoopNumber: too many controlled shaded windows in zone GROUNDFLOOR_OFFICES_E_TZ\n   ** Warning ** MapShadeDeploymentOrderToLoopNumber: too many controlled shaded windows in zone GROUNDFLOOR_OFFICES_E_TZ\n   ** Warning ** MapShadeDeploymentOrderToLoopNumber: found unassociated window for zone GROUNDFLOOR_OFFICES_E_TZ\n   ** Warning ** MapShadeDeploymentOrderToLoopNumber: too many controlled shaded windows in zone GROUNDFLOOR_OFFICES_E_TZ\n   ** Warning ** MapShadeDeploymentOrderToLoopNumber: found unassociated window for zone GROUNDFLOOR_OFFICES_E_TZ\n   ** Warning ** MapShadeDeploymentOrderToLoopNumber: too many controlled shaded windows in zone GROUNDFLOOR_OFFICES_E_TZ\n   ** Warning ** MapShadeDeploymentOrderToLoopNumber: found unassociated window for zone GROUNDFLOOR_OFFICES_E_TZ\n   ** Warning ** MapShadeDeploymentOrderToLoopNumber: too many controlled shaded windows in zone GROUNDFLOOR_OFFICES_E_TZ\n   ** Warning ** MapShadeDeploymentOrderToLoopNumber: found unassociated window for zone GROUNDFLOOR_OFFICES_E_TZ\n   ** Warning ** MapShadeDeploymentOrderToLoopNumber: too many controlled shaded windows in zone GROUNDFLOOR_OFFICES_E_TZ\n   ** Warning ** MapShadeDeploymentOrderToLoopNumber: found unassociated window for zone GROUNDFLOOR_OFFICES_E_TZ\n   ** Warning ** MapShadeDeploymentOrderToLoopNumber: too many controlled shaded windows in zone GROUNDFLOOR_OFFICES_E_TZ\n   ** Warning ** MapShadeDeploymentOrderToLoopNumber: found unassociated window for zone GROUNDFLOOR_OFFICES_E_TZ\n   ** Warning ** MapShadeDeploymentOrderToLoopNumber: too many controlled shaded windows in zone GROUNDFLOOR_OFFICES_E_TZ\n   ** Warning ** MapShadeDeploymentOrderToLoopNumber: too many controlled shaded windows in zone GROUNDFLOOR_OFFICES_E_TZ\n   ** Warning ** MapShadeDeploymentOrderToLoopNumber: too many controlled shaded windows in zone GROUNDFLOOR_OFFICES_E_TZ\n   ** Warning ** MapShadeDeploymentOrderToLoopNumber: too many controlled shaded windows in zone GROUNDFLOOR_OFFICES_E_TZ\n   ** Warning ** MapShadeDeploymentOrderToLoopNumber: too many controlled shaded windows in zone GROUNDFLOOR_OFFICES_E_TZ\n   ** Warning ** MapShadeDeploymentOrderToLoopNumber: found unassociated window for zone GROUNDFLOOR_OFFICES_E_TZ\n   ** Warning ** MapShadeDeploymentOrderToLoopNumber: too many controlled shaded windows in zone GROUNDFLOOR_OFFICES_E_TZ\n   ** Warning ** MapShadeDeploymentOrderToLoopNumber: found unassociated window for zone GROUNDFLOOR_OFFICES_E_TZ\n   ** Warning ** MapShadeDeploymentOrderToLoopNumber: too many controlled shaded windows in zone GROUNDFLOOR_OFFICES_E_TZ\n   ** Warning ** MapShadeDeploymentOrderToLoopNumber: found unassociated window for zone GROUNDFLOOR_OFFICES_E_TZ\n   ** Warning ** MapShadeDeploymentOrderToLoopNumber: too many controlled shaded windows in zone GROUNDFLOOR_OFFICES_E_TZ\n   ** Warning ** MapShadeDeploymentOrderToLoopNumber: found unassociated window for zone GROUNDFLOOR_OFFICES_E_TZ\n   ** Warning ** MapShadeDeploymentOrderToLoopNumber: too many controlled shaded windows in zone GROUNDFLOOR_OFFICES_E_TZ\n   ** Warning ** MapShadeDeploymentOrderToLoopNumber: found unassociated window for zone GROUNDFLOOR_OFFICES_E_TZ\n   ** Warning ** MapShadeDeploymentOrderToLoopNumber: too many controlled shaded windows in zone GROUNDFLOOR_OFFICES_E_TZ\n   ** Warning ** MapShadeDeploymentOrderToLoopNumber: found unassociated window for zone GROUNDFLOOR_OFFICES_E_TZ\n   ** Warning ** MapShadeDeploymentOrderToLoopNumber: too many controlled shaded windows in zone GROUNDFLOOR_OFFICES_E_TZ\n   ** Warning ** MapShadeDeploymentOrderToLoopNumber: too many controlled shaded windows in zone GROUNDFLOOR_OFFICES_E_TZ\n   ** Warning ** MapShadeDeploymentOrderToLoopNumber: too many controlled shaded windows in zone GROUNDFLOOR_OFFICES_E_TZ\n   ** Warning ** MapShadeDeploymentOrderToLoopNumber: too many controlled shaded windows in zone GROUNDFLOOR_OFFICES_E_TZ\n   ** Warning ** MapShadeDeploymentOrderToLoopNumber: too many controlled shaded windows in zone GROUNDFLOOR_OFFICES_E_TZ\n   ** Warning ** MapShadeDeploymentOrderToLoopNumber: found unassociated window for zone GROUNDFLOOR_OFFICES_E_TZ\n   ** Warning ** MapShadeDeploymentOrderToLoopNumber: too many controlled shaded windows in zone GROUNDFLOOR_OFFICES_E_TZ\n   ** Warning ** MapShadeDeploymentOrderToLoopNumber: found unassociated window for zone GROUNDFLOOR_OFFICES_E_TZ\n   ** Warning ** MapShadeDeploymentOrderToLoopNumber: too many controlled shaded windows in zone GROUNDFLOOR_OFFICES_E_TZ\n   ** Warning ** MapShadeDeploymentOrderToLoopNumber: found unassociated window for zone GROUNDFLOOR_OFFICES_E_TZ\n   ** Warning ** MapShadeDeploymentOrderToLoopNumber: too many controlled shaded windows in zone GROUNDFLOOR_OFFICES_E_TZ\n   ** Warning ** MapShadeDeploymentOrderToLoopNumber: found unassociated window for zone GROUNDFLOOR_OFFICES_E_TZ\n   ** Warning ** MapShadeDeploymentOrderToLoopNumber: too many controlled shaded windows in zone GROUNDFLOOR_OFFICES_E_TZ\n   ** Warning ** MapShadeDeploymentOrderToLoopNumber: found unassociated window for zone GROUNDFLOOR_OFFICES_E_TZ\n   ** Warning ** MapShadeDeploymentOrderToLoopNumber: too many controlled shaded windows in zone GROUNDFLOOR_OFFICES_E_TZ\n   ** Warning ** MapShadeDeploymentOrderToLoopNumber: found unassociated window for zone GROUNDFLOOR_OFFICES_E_TZ\n   ** Warning ** MapShadeDeploymentOrderToLoopNumber: too many controlled shaded windows in zone GROUNDFLOOR_OFFICES_E_TZ\n   ** Warning ** MapShadeDeploymentOrderToLoopNumber: too many controlled shaded windows in zone GROUNDFLOOR_OFFICES_E_TZ\n   ** Warning ** MapShadeDeploymentOrderToLoopNumber: too many controlled shaded windows in zone GROUNDFLOOR_OFFICES_E_TZ\n   ** Warning ** MapShadeDeploymentOrderToLoopNumber: too many controlled shaded windows in zone GROUNDFLOOR_OFFICES_E_TZ\n   ** Warning ** MapShadeDeploymentOrderToLoopNumber: too many controlled shaded windows in zone GROUNDFLOOR_OFFICES_E_TZ\n   ** Warning ** MapShadeDeploymentOrderToLoopNumber: found unassociated window for zone GROUNDFLOOR_OFFICES_E_TZ\n   ** Warning ** MapShadeDeploymentOrderToLoopNumber: too many controlled shaded windows in zone GROUNDFLOOR_OFFICES_E_TZ\n   ** Warning ** MapShadeDeploymentOrderToLoopNumber: found unassociated window for zone GROUNDFLOOR_OFFICES_E_TZ\n   ** Warning ** MapShadeDeploymentOrderToLoopNumber: too many controlled shaded windows in zone GROUNDFLOOR_OFFICES_E_TZ\n   ** Warning ** MapShadeDeploymentOrderToLoopNumber: found unassociated window for zone GROUNDFLOOR_OFFICES_E_TZ\n   ** Warning ** MapShadeDeploymentOrderToLoopNumber: too many controlled shaded windows in zone GROUNDFLOOR_OFFICES_E_TZ\n   ** Warning ** MapShadeDeploymentOrderToLoopNumber: found unassociated window for zone GROUNDFLOOR_OFFICES_E_TZ\n   ** Warning ** MapShadeDeploymentOrderToLoopNumber: too many controlled shaded windows in zone GROUNDFLOOR_OFFICES_E_TZ\n   ** Warning ** MapShadeDeploymentOrderToLoopNumber: found unassociated window for zone GROUNDFLOOR_OFFICES_E_TZ\n   ** Warning ** MapShadeDeploymentOrderToLoopNumber: too many controlled shaded windows in zone GROUNDFLOOR_OFFICES_E_TZ\n   ** Warning ** MapShadeDeploymentOrderToLoopNumber: found unassociated window for zone GROUNDFLOOR_OFFICES_E_TZ\n   ** Warning ** MapShadeDeploymentOrderToLoopNumber: too many controlled shaded windows in zone GROUNDFLOOR_OFFICES_E_TZ\n   ** Warning ** MapShadeDeploymentOrderToLoopNumber: too many controlled shaded windows in zone GROUNDFLOOR_OFFICES_E_TZ\n   ** Warning ** MapShadeDeploymentOrderToLoopNumber: too many controlled shaded windows in zone GROUNDFLOOR_OFFICES_E_TZ\n   ** Warning ** MapShadeDeploymentOrderToLoopNumber: too many controlled shaded windows in zone GROUNDFLOOR_OFFICES_E_TZ\n   ** Warning ** MapShadeDeploymentOrderToLoopNumber: too many controlled shaded windows in zone GROUNDFLOOR_OFFICES_E_TZ\n   ** Warning ** MapShadeDeploymentOrderToLoopNumber: found unassociated window for zone GROUNDFLOOR_OFFICES_E_TZ\n   ** Warning ** MapShadeDeploymentOrderToLoopNumber: too many controlled shaded windows in zone GROUNDFLOOR_OFFICES_E_TZ\n   ** Warning ** MapShadeDeploymentOrderToLoopNumber: found unassociated window for zone GROUNDFLOOR_OFFICES_E_TZ\n   ** Warning ** MapShadeDeploymentOrderToLoopNumber: too many controlled shaded windows in zone GROUNDFLOOR_OFFICES_E_TZ\n   ** Warning ** MapShadeDeploymentOrderToLoopNumber: found unassociated window for zone GROUNDFLOOR_OFFICES_E_TZ\n   ** Warning ** MapShadeDeploymentOrderToLoopNumber: too many controlled shaded windows in zone GROUNDFLOOR_OFFICES_E_TZ\n   ** Warning ** MapShadeDeploymentOrderToLoopNumber: found unassociated window for zone GROUNDFLOOR_OFFICES_E_TZ\n   ** Warning ** MapShadeDeploymentOrderToLoopNumber: too many controlled shaded windows in zone GROUNDFLOOR_OFFICES_E_TZ\n   ** Warning ** MapShadeDeploymentOrderToLoopNumber: found unassociated window for zone GROUNDFLOOR_OFFICES_E_TZ\n   ** Warning ** MapShadeDeploymentOrderToLoopNumber: too many controlled shaded windows in zone GROUNDFLOOR_OFFICES_E_TZ\n   ** Warning ** MapShadeDeploymentOrderToLoopNumber: found unassociated window for zone GROUNDFLOOR_OFFICES_E_TZ\n   ** Warning ** MapShadeDeploymentOrderToLoopNumber: found empty map for window in zone GROUNDFLOOR_OFFICES_E_TZ\n   ** Warning ** MapShadeDeploymentOrderToLoopNumber: found empty map for window in zone GROUNDFLOOR_OFFICES_E_TZ\n   ** Warning ** MapShadeDeploymentOrderToLoopNumber: found empty map for window in zone GROUNDFLOOR_OFFICES_E_TZ\n   ** Warning ** MapShadeDeploymentOrderToLoopNumber: found empty map for window in zone GROUNDFLOOR_OFFICES_E_TZ\n   ** Warning ** GetSimpleAirModelInputs: ZoneInfiltration:DesignFlowRate=\"BASEMENT_TZ BASEMENT_INFILTRATION\", Design Flow Rate Calculation Method specifies Flow per Exterior Surface Area, but Exterior Surface Area = 0.  0 Infiltration will result.\n   ************* Beginning System Sizing Calculations\n   ** Warning ** Since Zone Minimum Air Flow Input Method = CONSTANT, input for Fixed Minimum Air Flow Rate will be ignored.\n   **   ~~~   ** Occurs in AirTerminal:SingleDuct:VAV:Reheat = AIR TERMINAL SINGLE DUCT VAV REHEAT 1\n   ** Warning ** Since Zone Minimum Air Flow Input Method = CONSTANT, input for Fixed Minimum Air Flow Rate will be ignored.\n   **   ~~~   ** Occurs in AirTerminal:SingleDuct:VAV:Reheat = AIR TERMINAL SINGLE DUCT VAV REHEAT 16\n   ** Warning ** Since Zone Minimum Air Flow Input Method = CONSTANT, input for Fixed Minimum Air Flow Rate will be ignored.\n   **   ~~~   ** Occurs in AirTerminal:SingleDuct:VAV:Reheat = AIR TERMINAL SINGLE DUCT VAV REHEAT 2\n   ** Warning ** Since Zone Minimum Air Flow Input Method = CONSTANT, input for Fixed Minimum Air Flow Rate will be ignored.\n   **   ~~~   ** Occurs in AirTerminal:SingleDuct:VAV:Reheat = AIR TERMINAL SINGLE DUCT VAV REHEAT 3\n   ** Warning ** Since Zone Minimum Air Flow Input Method = CONSTANT, input for Fixed Minimum Air Flow Rate will be ignored.\n   **   ~~~   ** Occurs in AirTerminal:SingleDuct:VAV:Reheat = AIR TERMINAL SINGLE DUCT VAV REHEAT 4\n   ** Warning ** Since Zone Minimum Air Flow Input Method = CONSTANT, input for Fixed Minimum Air Flow Rate will be ignored.\n   **   ~~~   ** Occurs in AirTerminal:SingleDuct:VAV:Reheat = AIR TERMINAL SINGLE DUCT VAV REHEAT 5\n   ** Warning ** Since Zone Minimum Air Flow Input Method = CONSTANT, input for Fixed Minimum Air Flow Rate will be ignored.\n   **   ~~~   ** Occurs in AirTerminal:SingleDuct:VAV:Reheat = AIR TERMINAL SINGLE DUCT VAV REHEAT 6\n   ** Warning ** Since Zone Minimum Air Flow Input Method = CONSTANT, input for Fixed Minimum Air Flow Rate will be ignored.\n   **   ~~~   ** Occurs in AirTerminal:SingleDuct:VAV:Reheat = AIR TERMINAL SINGLE DUCT VAV REHEAT 17\n   ** Warning ** Since Zone Minimum Air Flow Input Method = CONSTANT, input for Fixed Minimum Air Flow Rate will be ignored.\n   **   ~~~   ** Occurs in AirTerminal:SingleDuct:VAV:Reheat = AIR TERMINAL SINGLE DUCT VAV REHEAT 7\n   ** Warning ** Since Zone Minimum Air Flow Input Method = CONSTANT, input for Fixed Minimum Air Flow Rate will be ignored.\n   **   ~~~   ** Occurs in AirTerminal:SingleDuct:VAV:Reheat = AIR TERMINAL SINGLE DUCT VAV REHEAT 8\n   ** Warning ** Since Zone Minimum Air Flow Input Method = CONSTANT, input for Fixed Minimum Air Flow Rate will be ignored.\n   **   ~~~   ** Occurs in AirTerminal:SingleDuct:VAV:Reheat = AIR TERMINAL SINGLE DUCT VAV REHEAT 9\n   ** Warning ** Since Zone Minimum Air Flow Input Method = CONSTANT, input for Fixed Minimum Air Flow Rate will be ignored.\n   **   ~~~   ** Occurs in AirTerminal:SingleDuct:VAV:Reheat = AIR TERMINAL SINGLE DUCT VAV REHEAT 10\n   ** Warning ** Since Zone Minimum Air Flow Input Method = CONSTANT, input for Fixed Minimum Air Flow Rate will be ignored.\n   **   ~~~   ** Occurs in AirTerminal:SingleDuct:VAV:Reheat = AIR TERMINAL SINGLE DUCT VAV REHEAT 11\n   ** Warning ** Since Zone Minimum Air Flow Input Method = CONSTANT, input for Fixed Minimum Air Flow Rate will be ignored.\n   **   ~~~   ** Occurs in AirTerminal:SingleDuct:VAV:Reheat = AIR TERMINAL SINGLE DUCT VAV REHEAT 18\n   ** Warning ** Since Zone Minimum Air Flow Input Method = CONSTANT, input for Fixed Minimum Air Flow Rate will be ignored.\n   **   ~~~   ** Occurs in AirTerminal:SingleDuct:VAV:Reheat = AIR TERMINAL SINGLE DUCT VAV REHEAT 12\n   ** Warning ** Since Zone Minimum Air Flow Input Method = CONSTANT, input for Fixed Minimum Air Flow Rate will be ignored.\n   **   ~~~   ** Occurs in AirTerminal:SingleDuct:VAV:Reheat = AIR TERMINAL SINGLE DUCT VAV REHEAT 13\n   ** Warning ** Since Zone Minimum Air Flow Input Method = CONSTANT, input for Fixed Minimum Air Flow Rate will be ignored.\n   **   ~~~   ** Occurs in AirTerminal:SingleDuct:VAV:Reheat = AIR TERMINAL SINGLE DUCT VAV REHEAT 14\n   ** Warning ** Since Zone Minimum Air Flow Input Method = CONSTANT, input for Fixed Minimum Air Flow Rate will be ignored.\n   **   ~~~   ** Occurs in AirTerminal:SingleDuct:VAV:Reheat = AIR TERMINAL SINGLE DUCT VAV REHEAT 15\n   ************* Beginning Plant Sizing Calculations\n   ** Warning ** GetOAControllerInputs: Controller:MechanicalVentilation=\"CONTROLLER MECHANICAL VENTILATION 2\n   **   ~~~   ** Cannot locate a matching DesignSpecification:ZoneAirDistribution object for Zone=\"GROUNDFLOOR_DATACENTER_TZ\".\n   **   ~~~   ** Using default zone air distribution effectiveness of 1.0 for heating and cooling.\n   ** Warning ** GetOAControllerInputs: Controller:MechanicalVentilation=\"CONTROLLER MECHANICAL VENTILATION 2\n   **   ~~~   ** Cannot locate a matching DesignSpecification:ZoneAirDistribution object for Zone=\"MID_DATACENTER_TZ\".\n   **   ~~~   ** Using default zone air distribution effectiveness of 1.0 for heating and cooling.\n   ** Warning ** GetOAControllerInputs: Controller:MechanicalVentilation=\"CONTROLLER MECHANICAL VENTILATION 2\n   **   ~~~   ** Cannot locate a matching DesignSpecification:ZoneAirDistribution object for Zone=\"TOP_DATACENTER_TZ\".\n   **   ~~~   ** Using default zone air distribution effectiveness of 1.0 for heating and cooling.\n   ** Warning ** Meter:Custom=\"WIRED_LTG_ELECTRICITY\", invalid Output Variable or Meter Name=\"WIRED_LTG\".\n   **   ~~~   ** ...will not be shown with the Meter results.\n   ** Warning ** Meter:Custom=\"WIRED_LTG_ELECTRICITY\", no items assigned \n   **   ~~~   ** ...will not be shown with the Meter results. This may be caused by a Meter:Custom be assigned to another Meter:Custom.\n   ** Warning ** Meter:CustomDecrement=\"WIRED_INT_EQUIP\", invalid Output Variable or Meter Name=\"DATACENTERPLUGLOADS:INTERIOREQUIPMENT:ELECTRICITY\".\n   **   ~~~   ** ...will not be shown with the Meter results.\n   ** Warning ** Meter:CustomDecrement=\"WIRED_INT_EQUIP\", no items assigned \n   **   ~~~   ** ...will not be shown with the Meter results\n   ** Warning ** Output:Meter: invalid Key Name=\"DISTRICTCOOLING:FACILITY\" - not found.\n   ** Warning ** Output:Meter: invalid Key Name=\"DISTRICTHEATING:FACILITY\" - not found.\n   ** Warning ** Output:Meter:MeterFileOnly requested for \"Electricity:Facility\" (TimeStep), already on \"Output:Meter\". Will report to both eplusout.eso and eplusout.mtr\n   ************* Testing Individual Branch Integrity\n   ************* All Branches passed integrity testing\n   ************* Testing Individual Supply Air Path Integrity\n   ************* All Supply Air Paths passed integrity testing\n   ************* Testing Individual Return Air Path Integrity\n   ************* All Return Air Paths passed integrity testing\n   ************* No node connection errors were found.\n   ************* Beginning Simulation\n   ** Severe  ** CheckWarmupConvergence: Loads Initialization, Zone=\"GROUNDFLOOR_CORE_TZ\" did not converge after 25 warmup days.\n   **   ~~~   ** See Warmup Convergence Information in .eio file for details.\n   **   ~~~   ** ...Environment(RunPeriod)=\"RUN PERIOD 1\"\n   **   ~~~   ** ..Max Temp Comparison = 5.63E-003 vs Temperature Convergence Tolerance=0.20 - Pass Convergence\n   **   ~~~   ** ..Min Temp Comparison = 9.39E-003 vs Temperature Convergence Tolerance=0.20 - Pass Convergence\n   **   ~~~   ** ..Max Heat Load Comparison = 4.6284E-002 vs Loads Convergence Tolerance=4.00E-002 - Fail Convergence\n   **   ~~~   ** ..Max Cool Load Comparison = 0.0000 vs Loads Convergence Tolerance=4.00E-002 - Pass Convergence\n   ** Warning ** In Output:Table:Monthly 'BUILDING ENERGY PERFORMANCE - ELECTRICITY' invalid Variable or Meter Name 'EXTERIORLIGHTS:ELECTRICITY'\n   ** Warning ** In Output:Table:Monthly 'BUILDING ENERGY PERFORMANCE - ELECTRICITY' invalid Variable or Meter Name 'HUMIDIFIER:ELECTRICITY'\n   ** Warning ** In Output:Table:Monthly 'BUILDING ENERGY PERFORMANCE - ELECTRICITY' invalid Variable or Meter Name 'HEATRECOVERY:ELECTRICITY'\n   ** Warning ** In Output:Table:Monthly 'BUILDING ENERGY PERFORMANCE - ELECTRICITY' invalid Variable or Meter Name 'WATERSYSTEMS:ELECTRICITY'\n   ** Warning ** In Output:Table:Monthly 'BUILDING ENERGY PERFORMANCE - ELECTRICITY' invalid Variable or Meter Name 'COGENERATION:ELECTRICITY'\n   ** Warning ** In Output:Table:Monthly 'BUILDING ENERGY PERFORMANCE - ELECTRICITY' invalid Variable or Meter Name 'REFRIGERATION:ELECTRICITY'\n   ** Warning ** In Output:Table:Monthly 'BUILDING ENERGY PERFORMANCE - NATURAL GAS' invalid Variable or Meter Name 'INTERIOREQUIPMENT:NATURALGAS'\n   ** Warning ** In Output:Table:Monthly 'BUILDING ENERGY PERFORMANCE - NATURAL GAS' invalid Variable or Meter Name 'EXTERIOREQUIPMENT:NATURALGAS'\n   ** Warning ** In Output:Table:Monthly 'BUILDING ENERGY PERFORMANCE - NATURAL GAS' invalid Variable or Meter Name 'COOLING:NATURALGAS'\n   ** Warning ** In Output:Table:Monthly 'BUILDING ENERGY PERFORMANCE - NATURAL GAS' invalid Variable or Meter Name 'WATERSYSTEMS:NATURALGAS'\n   ** Warning ** In Output:Table:Monthly 'BUILDING ENERGY PERFORMANCE - NATURAL GAS' invalid Variable or Meter Name 'COGENERATION:NATURALGAS'\n   ** Warning ** In Output:Table:Monthly 'BUILDING ENERGY PERFORMANCE - DISTRICT HEATING' invalid Variable or Meter Name 'INTERIORLIGHTS:DISTRICTHEATING'\n   ** Warning ** In Output:Table:Monthly 'BUILDING ENERGY PERFORMANCE - DISTRICT HEATING' invalid Variable or Meter Name 'EXTERIORLIGHTS:DISTRICTHEATING'\n   ** Warning ** In Output:Table:Monthly 'BUILDING ENERGY PERFORMANCE - DISTRICT HEATING' invalid Variable or Meter Name 'INTERIOREQUIPMENT:DISTRICTHEATING'\n   ** Warning ** In Output:Table:Monthly 'BUILDING ENERGY PERFORMANCE - DISTRICT HEATING' invalid Variable or Meter Name 'EXTERIOREQUIPMENT:DISTRICTHEATING'\n   ** Warning ** In Output:Table:Monthly 'BUILDING ENERGY PERFORMANCE - DISTRICT HEATING' invalid Variable or Meter Name 'FANS:DISTRICTHEATING'\n   ** Warning ** In Output:Table:Monthly 'BUILDING ENERGY PERFORMANCE - DISTRICT HEATING' invalid Variable or Meter Name 'PUMPS:DISTRICTHEATING'\n   ** Warning ** In Output:Table:Monthly 'BUILDING ENERGY PERFORMANCE - DISTRICT HEATING' invalid Variable or Meter Name 'HEATING:DISTRICTHEATING'\n   ** Warning ** In Output:Table:Monthly 'BUILDING ENERGY PERFORMANCE - DISTRICT HEATING' invalid Variable or Meter Name 'COOLING:DISTRICTHEATING'\n   ** Warning ** In Output:Table:Monthly 'BUILDING ENERGY PERFORMANCE - DISTRICT HEATING' invalid Variable or Meter Name 'HEATREJECTION:DISTRICTHEATING'\n   ** Warning ** In Output:Table:Monthly 'BUILDING ENERGY PERFORMANCE - DISTRICT HEATING' invalid Variable or Meter Name 'HUMIDIFIER:DISTRICTHEATING'\n   ** Warning ** In Output:Table:Monthly 'BUILDING ENERGY PERFORMANCE - DISTRICT HEATING' invalid Variable or Meter Name 'HEATRECOVERY:DISTRICTHEATING'\n   ** Warning ** In Output:Table:Monthly 'BUILDING ENERGY PERFORMANCE - DISTRICT HEATING' invalid Variable or Meter Name 'WATERSYSTEMS:DISTRICTHEATING'\n   ** Warning ** In Output:Table:Monthly 'BUILDING ENERGY PERFORMANCE - DISTRICT HEATING' invalid Variable or Meter Name 'COGENERATION:DISTRICTHEATING'\n   ** Warning ** In Output:Table:Monthly 'BUILDING ENERGY PERFORMANCE - DISTRICT COOLING' invalid Variable or Meter Name 'INTERIORLIGHTS:DISTRICTCOOLING'\n   ** Warning ** In Output:Table:Monthly 'BUILDING ENERGY PERFORMANCE - DISTRICT COOLING' invalid Variable or Meter Name 'EXTERIORLIGHTS:DISTRICTCOOLING'\n   ** Warning ** In Output:Table:Monthly 'BUILDING ENERGY PERFORMANCE - DISTRICT COOLING' invalid Variable or Meter Name 'INTERIOREQUIPMENT:DISTRICTCOOLING'\n   ** Warning ** In Output:Table:Monthly 'BUILDING ENERGY PERFORMANCE - DISTRICT COOLING' invalid Variable or Meter Name 'EXTERIOREQUIPMENT:DISTRICTCOOLING'\n   ** Warning ** In Output:Table:Monthly 'BUILDING ENERGY PERFORMANCE - DISTRICT COOLING' invalid Variable or Meter Name 'FANS:DISTRICTCOOLING'\n   ** Warning ** In Output:Table:Monthly 'BUILDING ENERGY PERFORMANCE - DISTRICT COOLING' invalid Variable or Meter Name 'PUMPS:DISTRICTCOOLING'\n   ** Warning ** In Output:Table:Monthly 'BUILDING ENERGY PERFORMANCE - DISTRICT COOLING' invalid Variable or Meter Name 'HEATING:DISTRICTCOOLING'\n   ** Warning ** In Output:Table:Monthly 'BUILDING ENERGY PERFORMANCE - DISTRICT COOLING' invalid Variable or Meter Name 'COOLING:DISTRICTCOOLING'\n   ** Warning ** In Output:Table:Monthly 'BUILDING ENERGY PERFORMANCE - DISTRICT COOLING' invalid Variable or Meter Name 'HEATREJECTION:DISTRICTCOOLING'\n   ** Warning ** In Output:Table:Monthly 'BUILDING ENERGY PERFORMANCE - DISTRICT COOLING' invalid Variable or Meter Name 'HUMIDIFIER:DISTRICTCOOLING'\n   ** Warning ** In Output:Table:Monthly 'BUILDING ENERGY PERFORMANCE - DISTRICT COOLING' invalid Variable or Meter Name 'HEATRECOVERY:DISTRICTCOOLING'\n   ** Warning ** In Output:Table:Monthly 'BUILDING ENERGY PERFORMANCE - DISTRICT COOLING' invalid Variable or Meter Name 'WATERSYSTEMS:DISTRICTCOOLING'\n   ** Warning ** In Output:Table:Monthly 'BUILDING ENERGY PERFORMANCE - DISTRICT COOLING' invalid Variable or Meter Name 'COGENERATION:DISTRICTCOOLING'\n   ** Warning ** In Output:Table:Monthly 'BUILDING ENERGY PERFORMANCE - ELECTRICITY PEAK DEMAND' invalid Variable or Meter Name 'EXTERIORLIGHTS:ELECTRICITY'\n   ** Warning ** In Output:Table:Monthly 'BUILDING ENERGY PERFORMANCE - ELECTRICITY PEAK DEMAND' invalid Variable or Meter Name 'HUMIDIFIER:ELECTRICITY'\n   ** Warning ** In Output:Table:Monthly 'BUILDING ENERGY PERFORMANCE - ELECTRICITY PEAK DEMAND' invalid Variable or Meter Name 'HEATRECOVERY:ELECTRICITY'\n   ** Warning ** In Output:Table:Monthly 'BUILDING ENERGY PERFORMANCE - ELECTRICITY PEAK DEMAND' invalid Variable or Meter Name 'WATERSYSTEMS:ELECTRICITY'\n   ** Warning ** In Output:Table:Monthly 'BUILDING ENERGY PERFORMANCE - ELECTRICITY PEAK DEMAND' invalid Variable or Meter Name 'COGENERATION:ELECTRICITY'\n   ** Warning ** In Output:Table:Monthly 'BUILDING ENERGY PERFORMANCE - NATURAL GAS PEAK DEMAND' invalid Variable or Meter Name 'INTERIOREQUIPMENT:NATURALGAS'\n   ** Warning ** In Output:Table:Monthly 'BUILDING ENERGY PERFORMANCE - NATURAL GAS PEAK DEMAND' invalid Variable or Meter Name 'EXTERIOREQUIPMENT:NATURALGAS'\n   ** Warning ** In Output:Table:Monthly 'BUILDING ENERGY PERFORMANCE - NATURAL GAS PEAK DEMAND' invalid Variable or Meter Name 'COOLING:NATURALGAS'\n   ** Warning ** In Output:Table:Monthly 'BUILDING ENERGY PERFORMANCE - NATURAL GAS PEAK DEMAND' invalid Variable or Meter Name 'WATERSYSTEMS:NATURALGAS'\n   ** Warning ** In Output:Table:Monthly 'BUILDING ENERGY PERFORMANCE - NATURAL GAS PEAK DEMAND' invalid Variable or Meter Name 'COGENERATION:NATURALGAS'\n   ** Warning ** In Output:Table:Monthly 'BUILDING ENERGY PERFORMANCE - DISTRICT HEATING PEAK DEMAND' invalid Variable or Meter Name 'DISTRICTHEATING:FACILITY'\n   ** Warning ** In Output:Table:Monthly 'BUILDING ENERGY PERFORMANCE - DISTRICT HEATING PEAK DEMAND' invalid Variable or Meter Name 'INTERIORLIGHTS:DISTRICTHEATING'\n   ** Warning ** In Output:Table:Monthly 'BUILDING ENERGY PERFORMANCE - DISTRICT HEATING PEAK DEMAND' invalid Variable or Meter Name 'EXTERIORLIGHTS:DISTRICTHEATING'\n   ** Warning ** In Output:Table:Monthly 'BUILDING ENERGY PERFORMANCE - DISTRICT HEATING PEAK DEMAND' invalid Variable or Meter Name 'INTERIOREQUIPMENT:DISTRICTHEATING'\n   ** Warning ** In Output:Table:Monthly 'BUILDING ENERGY PERFORMANCE - DISTRICT HEATING PEAK DEMAND' invalid Variable or Meter Name 'EXTERIOREQUIPMENT:DISTRICTHEATING'\n   ** Warning ** In Output:Table:Monthly 'BUILDING ENERGY PERFORMANCE - DISTRICT HEATING PEAK DEMAND' invalid Variable or Meter Name 'FANS:DISTRICTHEATING'\n   ** Warning ** In Output:Table:Monthly 'BUILDING ENERGY PERFORMANCE - DISTRICT HEATING PEAK DEMAND' invalid Variable or Meter Name 'PUMPS:DISTRICTHEATING'\n   ** Warning ** In Output:Table:Monthly 'BUILDING ENERGY PERFORMANCE - DISTRICT HEATING PEAK DEMAND' invalid Variable or Meter Name 'HEATING:DISTRICTHEATING'\n   ** Warning ** In Output:Table:Monthly 'BUILDING ENERGY PERFORMANCE - DISTRICT HEATING PEAK DEMAND' invalid Variable or Meter Name 'COOLING:DISTRICTHEATING'\n   ** Warning ** In Output:Table:Monthly 'BUILDING ENERGY PERFORMANCE - DISTRICT HEATING PEAK DEMAND' invalid Variable or Meter Name 'HEATREJECTION:DISTRICTHEATING'\n   ** Warning ** In Output:Table:Monthly 'BUILDING ENERGY PERFORMANCE - DISTRICT HEATING PEAK DEMAND' invalid Variable or Meter Name 'HUMIDIFIER:DISTRICTHEATING'\n   ** Warning ** In Output:Table:Monthly 'BUILDING ENERGY PERFORMANCE - DISTRICT HEATING PEAK DEMAND' invalid Variable or Meter Name 'HEATRECOVERY:DISTRICTHEATING'\n   ** Warning ** In Output:Table:Monthly 'BUILDING ENERGY PERFORMANCE - DISTRICT HEATING PEAK DEMAND' invalid Variable or Meter Name 'WATERSYSTEMS:DISTRICTHEATING'\n   ** Warning ** In Output:Table:Monthly 'BUILDING ENERGY PERFORMANCE - DISTRICT HEATING PEAK DEMAND' invalid Variable or Meter Name 'COGENERATION:DISTRICTHEATING'\n   ** Warning ** In Output:Table:Monthly 'BUILDING ENERGY PERFORMANCE - DISTRICT COOLING PEAK DEMAND' invalid Variable or Meter Name 'DISTRICTCOOLING:FACILITY'\n   ** Warning ** In Output:Table:Monthly 'BUILDING ENERGY PERFORMANCE - DISTRICT COOLING PEAK DEMAND' invalid Variable or Meter Name 'INTERIORLIGHTS:DISTRICTCOOLING'\n   ** Warning ** In Output:Table:Monthly 'BUILDING ENERGY PERFORMANCE - DISTRICT COOLING PEAK DEMAND' invalid Variable or Meter Name 'EXTERIORLIGHTS:DISTRICTCOOLING'\n   ** Warning ** In Output:Table:Monthly 'BUILDING ENERGY PERFORMANCE - DISTRICT COOLING PEAK DEMAND' invalid Variable or Meter Name 'INTERIOREQUIPMENT:DISTRICTCOOLING'\n   ** Warning ** In Output:Table:Monthly 'BUILDING ENERGY PERFORMANCE - DISTRICT COOLING PEAK DEMAND' invalid Variable or Meter Name 'EXTERIOREQUIPMENT:DISTRICTCOOLING'\n   ** Warning ** In Output:Table:Monthly 'BUILDING ENERGY PERFORMANCE - DISTRICT COOLING PEAK DEMAND' invalid Variable or Meter Name 'FANS:DISTRICTCOOLING'\n   ** Warning ** In Output:Table:Monthly 'BUILDING ENERGY PERFORMANCE - DISTRICT COOLING PEAK DEMAND' invalid Variable or Meter Name 'PUMPS:DISTRICTCOOLING'\n   ** Warning ** In Output:Table:Monthly 'BUILDING ENERGY PERFORMANCE - DISTRICT COOLING PEAK DEMAND' invalid Variable or Meter Name 'HEATING:DISTRICTCOOLING'\n   ** Warning ** In Output:Table:Monthly 'BUILDING ENERGY PERFORMANCE - DISTRICT COOLING PEAK DEMAND' invalid Variable or Meter Name 'COOLING:DISTRICTCOOLING'\n   ** Warning ** In Output:Table:Monthly 'BUILDING ENERGY PERFORMANCE - DISTRICT COOLING PEAK DEMAND' invalid Variable or Meter Name 'HEATREJECTION:DISTRICTCOOLING'\n   ** Warning ** In Output:Table:Monthly 'BUILDING ENERGY PERFORMANCE - DISTRICT COOLING PEAK DEMAND' invalid Variable or Meter Name 'HUMIDIFIER:DISTRICTCOOLING'\n   ** Warning ** In Output:Table:Monthly 'BUILDING ENERGY PERFORMANCE - DISTRICT COOLING PEAK DEMAND' invalid Variable or Meter Name 'HEATRECOVERY:DISTRICTCOOLING'\n   ** Warning ** In Output:Table:Monthly 'BUILDING ENERGY PERFORMANCE - DISTRICT COOLING PEAK DEMAND' invalid Variable or Meter Name 'WATERSYSTEMS:DISTRICTCOOLING'\n   ** Warning ** In Output:Table:Monthly 'BUILDING ENERGY PERFORMANCE - DISTRICT COOLING PEAK DEMAND' invalid Variable or Meter Name 'COGENERATION:DISTRICTCOOLING'\n   ** Warning ** In Output:Table:Monthly 'SpaceGainsMonthly' invalid Variable or Meter Name 'ZONE GAS EQUIPMENT TOTAL HEATING ENERGY'\n   ** Warning ** In Output:Table:Monthly 'SpaceGainsMonthly' invalid Variable or Meter Name 'ZONE HOT WATER EQUIPMENT TOTAL HEATING ENERGY'\n   ** Warning ** In Output:Table:Monthly 'SpaceGainsMonthly' invalid Variable or Meter Name 'ZONE STEAM EQUIPMENT TOTAL HEATING ENERGY'\n   ** Warning ** In Output:Table:Monthly 'SpaceGainsMonthly' invalid Variable or Meter Name 'ZONE OTHER EQUIPMENT TOTAL HEATING ENERGY'\n   ** Warning ** In Output:Table:Monthly 'PeakSpaceGainsMonthly' invalid Variable or Meter Name 'ZONE GAS EQUIPMENT TOTAL HEATING ENERGY'\n   ** Warning ** In Output:Table:Monthly 'PeakSpaceGainsMonthly' invalid Variable or Meter Name 'ZONE HOT WATER EQUIPMENT TOTAL HEATING ENERGY'\n   ** Warning ** In Output:Table:Monthly 'PeakSpaceGainsMonthly' invalid Variable or Meter Name 'ZONE STEAM EQUIPMENT TOTAL HEATING ENERGY'\n   ** Warning ** In Output:Table:Monthly 'PeakSpaceGainsMonthly' invalid Variable or Meter Name 'ZONE OTHER EQUIPMENT TOTAL HEATING ENERGY'\n   ** Warning ** In Output:Table:Monthly 'SpaceGainComponentsAtCoolingPeakMonthly' invalid Variable or Meter Name 'ZONE GAS EQUIPMENT TOTAL HEATING ENERGY'\n   ** Warning ** In Output:Table:Monthly 'SpaceGainComponentsAtCoolingPeakMonthly' invalid Variable or Meter Name 'ZONE HOT WATER EQUIPMENT TOTAL HEATING ENERGY'\n   ** Warning ** In Output:Table:Monthly 'SpaceGainComponentsAtCoolingPeakMonthly' invalid Variable or Meter Name 'ZONE STEAM EQUIPMENT TOTAL HEATING ENERGY'\n   ** Warning ** In Output:Table:Monthly 'SpaceGainComponentsAtCoolingPeakMonthly' invalid Variable or Meter Name 'ZONE OTHER EQUIPMENT TOTAL HEATING ENERGY'\n   ** Warning ** In Output:Table:Monthly 'EnergyConsumptionElectricityGeneratedPropaneMonthly' invalid Variable or Meter Name 'ELECTRICITYPRODUCED:FACILITY'\n   ** Warning ** In Output:Table:Monthly 'EnergyConsumptionElectricityGeneratedPropaneMonthly' invalid Variable or Meter Name 'ELECTRICITYPRODUCED:FACILITY'\n   ** Warning ** In Output:Table:Monthly 'EnergyConsumptionElectricityGeneratedPropaneMonthly' invalid Variable or Meter Name 'PROPANE:FACILITY'\n   ** Warning ** In Output:Table:Monthly 'EnergyConsumptionElectricityGeneratedPropaneMonthly' invalid Variable or Meter Name 'PROPANE:FACILITY'\n   ** Warning ** In Output:Table:Monthly 'EnergyConsumptionDieselFuelOilMonthly' invalid Variable or Meter Name 'DIESEL:FACILITY'\n   ** Warning ** In Output:Table:Monthly 'EnergyConsumptionDieselFuelOilMonthly' invalid Variable or Meter Name 'DIESEL:FACILITY'\n   ** Warning ** In Output:Table:Monthly 'EnergyConsumptionDieselFuelOilMonthly' invalid Variable or Meter Name 'FUELOILNO1:FACILITY'\n   ** Warning ** In Output:Table:Monthly 'EnergyConsumptionDieselFuelOilMonthly' invalid Variable or Meter Name 'FUELOILNO1:FACILITY'\n   ** Warning ** In Output:Table:Monthly 'EnergyConsumptionDieselFuelOilMonthly' invalid Variable or Meter Name 'FUELOILNO2:FACILITY'\n   ** Warning ** In Output:Table:Monthly 'EnergyConsumptionDieselFuelOilMonthly' invalid Variable or Meter Name 'FUELOILNO2:FACILITY'\n   ** Warning ** In Output:Table:Monthly 'EnergyConsumptionDistrictHeatingCoolingMonthly' invalid Variable or Meter Name 'DISTRICTCOOLING:FACILITY'\n   ** Warning ** In Output:Table:Monthly 'EnergyConsumptionDistrictHeatingCoolingMonthly' invalid Variable or Meter Name 'DISTRICTCOOLING:FACILITY'\n   ** Warning ** In Output:Table:Monthly 'EnergyConsumptionDistrictHeatingCoolingMonthly' invalid Variable or Meter Name 'DISTRICTHEATING:FACILITY'\n   ** Warning ** In Output:Table:Monthly 'EnergyConsumptionDistrictHeatingCoolingMonthly' invalid Variable or Meter Name 'DISTRICTHEATING:FACILITY'\n   ** Warning ** In Output:Table:Monthly 'EnergyConsumptionCoalGasolineMonthly' invalid Variable or Meter Name 'COAL:FACILITY'\n   ** Warning ** In Output:Table:Monthly 'EnergyConsumptionCoalGasolineMonthly' invalid Variable or Meter Name 'COAL:FACILITY'\n   ** Warning ** In Output:Table:Monthly 'EnergyConsumptionCoalGasolineMonthly' invalid Variable or Meter Name 'GASOLINE:FACILITY'\n   ** Warning ** In Output:Table:Monthly 'EnergyConsumptionCoalGasolineMonthly' invalid Variable or Meter Name 'GASOLINE:FACILITY'\n   ** Warning ** In Output:Table:Monthly 'EnergyConsumptionOtherFuelsMonthly' invalid Variable or Meter Name 'OTHERFUEL1:FACILITY'\n   ** Warning ** In Output:Table:Monthly 'EnergyConsumptionOtherFuelsMonthly' invalid Variable or Meter Name 'OTHERFUEL1:FACILITY'\n   ** Warning ** In Output:Table:Monthly 'EnergyConsumptionOtherFuelsMonthly' invalid Variable or Meter Name 'OTHERFUEL2:FACILITY'\n   ** Warning ** In Output:Table:Monthly 'EnergyConsumptionOtherFuelsMonthly' invalid Variable or Meter Name 'OTHERFUEL2:FACILITY'\n   ** Warning ** In Output:Table:Monthly 'EndUseEnergyConsumptionElectricityMonthly' invalid Variable or Meter Name 'EXTERIORLIGHTS:ELECTRICITY'\n   ** Warning ** In Output:Table:Monthly 'EndUseEnergyConsumptionElectricityMonthly' invalid Variable or Meter Name 'HUMIDIFIER:ELECTRICITY'\n   ** Warning ** In Output:Table:Monthly 'EndUseEnergyConsumptionElectricityMonthly' invalid Variable or Meter Name 'HEATRECOVERY:ELECTRICITY'\n   ** Warning ** In Output:Table:Monthly 'EndUseEnergyConsumptionElectricityMonthly' invalid Variable or Meter Name 'WATERSYSTEMS:ELECTRICITY'\n   ** Warning ** In Output:Table:Monthly 'EndUseEnergyConsumptionElectricityMonthly' invalid Variable or Meter Name 'COGENERATION:ELECTRICITY'\n   ** Warning ** In Output:Table:Monthly 'EndUseEnergyConsumptionNaturalGasMonthly' invalid Variable or Meter Name 'INTERIOREQUIPMENT:NATURALGAS'\n   ** Warning ** In Output:Table:Monthly 'EndUseEnergyConsumptionNaturalGasMonthly' invalid Variable or Meter Name 'EXTERIOREQUIPMENT:NATURALGAS'\n   ** Warning ** In Output:Table:Monthly 'EndUseEnergyConsumptionNaturalGasMonthly' invalid Variable or Meter Name 'COOLING:NATURALGAS'\n   ** Warning ** In Output:Table:Monthly 'EndUseEnergyConsumptionNaturalGasMonthly' invalid Variable or Meter Name 'WATERSYSTEMS:NATURALGAS'\n   ** Warning ** In Output:Table:Monthly 'EndUseEnergyConsumptionNaturalGasMonthly' invalid Variable or Meter Name 'COGENERATION:NATURALGAS'\n   ** Warning ** In Output:Table:Monthly 'EndUseEnergyConsumptionNaturalGasMonthly' invalid Variable or Meter Name 'HUMIDIFIER:NATURALGAS'\n   ** Warning ** In Output:Table:Monthly 'EndUseEnergyConsumptionDieselMonthly' invalid Variable or Meter Name 'EXTERIOREQUIPMENT:DIESEL'\n   ** Warning ** In Output:Table:Monthly 'EndUseEnergyConsumptionDieselMonthly' invalid Variable or Meter Name 'COOLING:DIESEL'\n   ** Warning ** In Output:Table:Monthly 'EndUseEnergyConsumptionDieselMonthly' invalid Variable or Meter Name 'HEATING:DIESEL'\n   ** Warning ** In Output:Table:Monthly 'EndUseEnergyConsumptionDieselMonthly' invalid Variable or Meter Name 'WATERSYSTEMS:DIESEL'\n   ** Warning ** In Output:Table:Monthly 'EndUseEnergyConsumptionDieselMonthly' invalid Variable or Meter Name 'COGENERATION:DIESEL'\n   ** Warning ** In Output:Table:Monthly 'EndUseEnergyConsumptionFuelOilMonthly' invalid Variable or Meter Name 'EXTERIOREQUIPMENT:FUELOILNO1'\n   ** Warning ** In Output:Table:Monthly 'EndUseEnergyConsumptionFuelOilMonthly' invalid Variable or Meter Name 'COOLING:FUELOILNO1'\n   ** Warning ** In Output:Table:Monthly 'EndUseEnergyConsumptionFuelOilMonthly' invalid Variable or Meter Name 'HEATING:FUELOILNO1'\n   ** Warning ** In Output:Table:Monthly 'EndUseEnergyConsumptionFuelOilMonthly' invalid Variable or Meter Name 'WATERSYSTEMS:FUELOILNO1'\n   ** Warning ** In Output:Table:Monthly 'EndUseEnergyConsumptionFuelOilMonthly' invalid Variable or Meter Name 'COGENERATION:FUELOILNO1'\n   ** Warning ** In Output:Table:Monthly 'EndUseEnergyConsumptionFuelOilMonthly' invalid Variable or Meter Name 'EXTERIOREQUIPMENT:FUELOILNO2'\n   ** Warning ** In Output:Table:Monthly 'EndUseEnergyConsumptionFuelOilMonthly' invalid Variable or Meter Name 'COOLING:FUELOILNO2'\n   ** Warning ** In Output:Table:Monthly 'EndUseEnergyConsumptionFuelOilMonthly' invalid Variable or Meter Name 'HEATING:FUELOILNO2'\n   ** Warning ** In Output:Table:Monthly 'EndUseEnergyConsumptionFuelOilMonthly' invalid Variable or Meter Name 'WATERSYSTEMS:FUELOILNO2'\n   ** Warning ** In Output:Table:Monthly 'EndUseEnergyConsumptionFuelOilMonthly' invalid Variable or Meter Name 'COGENERATION:FUELOILNO2'\n   ** Warning ** In Output:Table:Monthly 'EndUseEnergyConsumptionCoalMonthly' invalid Variable or Meter Name 'EXTERIOREQUIPMENT:COAL'\n   ** Warning ** In Output:Table:Monthly 'EndUseEnergyConsumptionCoalMonthly' invalid Variable or Meter Name 'HEATING:COAL'\n   ** Warning ** In Output:Table:Monthly 'EndUseEnergyConsumptionCoalMonthly' invalid Variable or Meter Name 'WATERSYSTEMS:COAL'\n   ** Warning ** In Output:Table:Monthly 'EndUseEnergyConsumptionPropaneMonthly' invalid Variable or Meter Name 'EXTERIOREQUIPMENT:PROPANE'\n   ** Warning ** In Output:Table:Monthly 'EndUseEnergyConsumptionPropaneMonthly' invalid Variable or Meter Name 'COOLING:PROPANE'\n   ** Warning ** In Output:Table:Monthly 'EndUseEnergyConsumptionPropaneMonthly' invalid Variable or Meter Name 'HEATING:PROPANE'\n   ** Warning ** In Output:Table:Monthly 'EndUseEnergyConsumptionPropaneMonthly' invalid Variable or Meter Name 'WATERSYSTEMS:PROPANE'\n   ** Warning ** In Output:Table:Monthly 'EndUseEnergyConsumptionPropaneMonthly' invalid Variable or Meter Name 'COGENERATION:PROPANE'\n   ** Warning ** In Output:Table:Monthly 'EndUseEnergyConsumptionPropaneMonthly' invalid Variable or Meter Name 'HUMIDIFIER:PROPANE'\n   ** Warning ** In Output:Table:Monthly 'EndUseEnergyConsumptionGasolineMonthly' invalid Variable or Meter Name 'EXTERIOREQUIPMENT:GASOLINE'\n   ** Warning ** In Output:Table:Monthly 'EndUseEnergyConsumptionGasolineMonthly' invalid Variable or Meter Name 'COOLING:GASOLINE'\n   ** Warning ** In Output:Table:Monthly 'EndUseEnergyConsumptionGasolineMonthly' invalid Variable or Meter Name 'HEATING:GASOLINE'\n   ** Warning ** In Output:Table:Monthly 'EndUseEnergyConsumptionGasolineMonthly' invalid Variable or Meter Name 'WATERSYSTEMS:GASOLINE'\n   ** Warning ** In Output:Table:Monthly 'EndUseEnergyConsumptionGasolineMonthly' invalid Variable or Meter Name 'COGENERATION:GASOLINE'\n   ** Warning ** In Output:Table:Monthly 'EndUseEnergyConsumptionOtherFuelsMonthly' invalid Variable or Meter Name 'EXTERIOREQUIPMENT:OTHERFUEL1'\n   ** Warning ** In Output:Table:Monthly 'EndUseEnergyConsumptionOtherFuelsMonthly' invalid Variable or Meter Name 'COOLING:OTHERFUEL1'\n   ** Warning ** In Output:Table:Monthly 'EndUseEnergyConsumptionOtherFuelsMonthly' invalid Variable or Meter Name 'HEATING:OTHERFUEL1'\n   ** Warning ** In Output:Table:Monthly 'EndUseEnergyConsumptionOtherFuelsMonthly' invalid Variable or Meter Name 'WATERSYSTEMS:OTHERFUEL1'\n   ** Warning ** In Output:Table:Monthly 'EndUseEnergyConsumptionOtherFuelsMonthly' invalid Variable or Meter Name 'COGENERATION:OTHERFUEL1'\n   ** Warning ** In Output:Table:Monthly 'EndUseEnergyConsumptionOtherFuelsMonthly' invalid Variable or Meter Name 'EXTERIOREQUIPMENT:OTHERFUEL2'\n   ** Warning ** In Output:Table:Monthly 'EndUseEnergyConsumptionOtherFuelsMonthly' invalid Variable or Meter Name 'COOLING:OTHERFUEL2'\n   ** Warning ** In Output:Table:Monthly 'EndUseEnergyConsumptionOtherFuelsMonthly' invalid Variable or Meter Name 'HEATING:OTHERFUEL2'\n   ** Warning ** In Output:Table:Monthly 'EndUseEnergyConsumptionOtherFuelsMonthly' invalid Variable or Meter Name 'WATERSYSTEMS:OTHERFUEL2'\n   ** Warning ** In Output:Table:Monthly 'EndUseEnergyConsumptionOtherFuelsMonthly' invalid Variable or Meter Name 'COGENERATION:OTHERFUEL2'\n   ** Warning ** In Output:Table:Monthly 'PeakEnergyEndUseElectricityPart1Monthly' invalid Variable or Meter Name 'EXTERIORLIGHTS:ELECTRICITY'\n   ** Warning ** In Output:Table:Monthly 'PeakEnergyEndUseElectricityPart2Monthly' invalid Variable or Meter Name 'HUMIDIFIER:ELECTRICITY'\n   ** Warning ** In Output:Table:Monthly 'PeakEnergyEndUseElectricityPart2Monthly' invalid Variable or Meter Name 'HEATRECOVERY:ELECTRICITY'\n   ** Warning ** In Output:Table:Monthly 'PeakEnergyEndUseElectricityPart2Monthly' invalid Variable or Meter Name 'WATERSYSTEMS:ELECTRICITY'\n   ** Warning ** In Output:Table:Monthly 'PeakEnergyEndUseElectricityPart2Monthly' invalid Variable or Meter Name 'COGENERATION:ELECTRICITY'\n   ** Warning ** In Output:Table:Monthly 'ElectricComponentsOfPeakDemandMonthly' invalid Variable or Meter Name 'EXTERIORLIGHTS:ELECTRICITY'\n   ** Warning ** In Output:Table:Monthly 'PeakEnergyEndUseNaturalGasMonthly' invalid Variable or Meter Name 'INTERIOREQUIPMENT:NATURALGAS'\n   ** Warning ** In Output:Table:Monthly 'PeakEnergyEndUseNaturalGasMonthly' invalid Variable or Meter Name 'EXTERIOREQUIPMENT:NATURALGAS'\n   ** Warning ** In Output:Table:Monthly 'PeakEnergyEndUseNaturalGasMonthly' invalid Variable or Meter Name 'COOLING:NATURALGAS'\n   ** Warning ** In Output:Table:Monthly 'PeakEnergyEndUseNaturalGasMonthly' invalid Variable or Meter Name 'WATERSYSTEMS:NATURALGAS'\n   ** Warning ** In Output:Table:Monthly 'PeakEnergyEndUseNaturalGasMonthly' invalid Variable or Meter Name 'COGENERATION:NATURALGAS'\n   ** Warning ** In Output:Table:Monthly 'PeakEnergyEndUseDieselMonthly' invalid Variable or Meter Name 'EXTERIOREQUIPMENT:DIESEL'\n   ** Warning ** In Output:Table:Monthly 'PeakEnergyEndUseDieselMonthly' invalid Variable or Meter Name 'COOLING:DIESEL'\n   ** Warning ** In Output:Table:Monthly 'PeakEnergyEndUseDieselMonthly' invalid Variable or Meter Name 'HEATING:DIESEL'\n   ** Warning ** In Output:Table:Monthly 'PeakEnergyEndUseDieselMonthly' invalid Variable or Meter Name 'WATERSYSTEMS:DIESEL'\n   ** Warning ** In Output:Table:Monthly 'PeakEnergyEndUseDieselMonthly' invalid Variable or Meter Name 'COGENERATION:DIESEL'\n   ** Warning ** In Output:Table:Monthly 'PeakEnergyEndUseFuelOilMonthly' invalid Variable or Meter Name 'EXTERIOREQUIPMENT:FUELOILNO1'\n   ** Warning ** In Output:Table:Monthly 'PeakEnergyEndUseFuelOilMonthly' invalid Variable or Meter Name 'COOLING:FUELOILNO1'\n   ** Warning ** In Output:Table:Monthly 'PeakEnergyEndUseFuelOilMonthly' invalid Variable or Meter Name 'HEATING:FUELOILNO1'\n   ** Warning ** In Output:Table:Monthly 'PeakEnergyEndUseFuelOilMonthly' invalid Variable or Meter Name 'WATERSYSTEMS:FUELOILNO1'\n   ** Warning ** In Output:Table:Monthly 'PeakEnergyEndUseFuelOilMonthly' invalid Variable or Meter Name 'COGENERATION:FUELOILNO1'\n   ** Warning ** In Output:Table:Monthly 'PeakEnergyEndUseFuelOilMonthly' invalid Variable or Meter Name 'EXTERIOREQUIPMENT:FUELOILNO2'\n   ** Warning ** In Output:Table:Monthly 'PeakEnergyEndUseFuelOilMonthly' invalid Variable or Meter Name 'COOLING:FUELOILNO2'\n   ** Warning ** In Output:Table:Monthly 'PeakEnergyEndUseFuelOilMonthly' invalid Variable or Meter Name 'HEATING:FUELOILNO2'\n   ** Warning ** In Output:Table:Monthly 'PeakEnergyEndUseFuelOilMonthly' invalid Variable or Meter Name 'WATERSYSTEMS:FUELOILNO2'\n   ** Warning ** In Output:Table:Monthly 'PeakEnergyEndUseFuelOilMonthly' invalid Variable or Meter Name 'COGENERATION:FUELOILNO2'\n   ** Warning ** In Output:Table:Monthly 'PeakEnergyEndUseCoalMonthly' invalid Variable or Meter Name 'EXTERIOREQUIPMENT:COAL'\n   ** Warning ** In Output:Table:Monthly 'PeakEnergyEndUseCoalMonthly' invalid Variable or Meter Name 'HEATING:COAL'\n   ** Warning ** In Output:Table:Monthly 'PeakEnergyEndUseCoalMonthly' invalid Variable or Meter Name 'WATERSYSTEMS:COAL'\n   ** Warning ** In Output:Table:Monthly 'PeakEnergyEndUsePropaneMonthly' invalid Variable or Meter Name 'EXTERIOREQUIPMENT:PROPANE'\n   ** Warning ** In Output:Table:Monthly 'PeakEnergyEndUsePropaneMonthly' invalid Variable or Meter Name 'COOLING:PROPANE'\n   ** Warning ** In Output:Table:Monthly 'PeakEnergyEndUsePropaneMonthly' invalid Variable or Meter Name 'HEATING:PROPANE'\n   ** Warning ** In Output:Table:Monthly 'PeakEnergyEndUsePropaneMonthly' invalid Variable or Meter Name 'WATERSYSTEMS:PROPANE'\n   ** Warning ** In Output:Table:Monthly 'PeakEnergyEndUsePropaneMonthly' invalid Variable or Meter Name 'COGENERATION:PROPANE'\n   ** Warning ** In Output:Table:Monthly 'PeakEnergyEndUseGasolineMonthly' invalid Variable or Meter Name 'EXTERIOREQUIPMENT:GASOLINE'\n   ** Warning ** In Output:Table:Monthly 'PeakEnergyEndUseGasolineMonthly' invalid Variable or Meter Name 'COOLING:GASOLINE'\n   ** Warning ** In Output:Table:Monthly 'PeakEnergyEndUseGasolineMonthly' invalid Variable or Meter Name 'HEATING:GASOLINE'\n   ** Warning ** In Output:Table:Monthly 'PeakEnergyEndUseGasolineMonthly' invalid Variable or Meter Name 'WATERSYSTEMS:GASOLINE'\n   ** Warning ** In Output:Table:Monthly 'PeakEnergyEndUseGasolineMonthly' invalid Variable or Meter Name 'COGENERATION:GASOLINE'\n   ** Warning ** In Output:Table:Monthly 'PeakEnergyEndUseOtherFuelsMonthly' invalid Variable or Meter Name 'EXTERIOREQUIPMENT:OTHERFUEL1'\n   ** Warning ** In Output:Table:Monthly 'PeakEnergyEndUseOtherFuelsMonthly' invalid Variable or Meter Name 'COOLING:OTHERFUEL1'\n   ** Warning ** In Output:Table:Monthly 'PeakEnergyEndUseOtherFuelsMonthly' invalid Variable or Meter Name 'HEATING:OTHERFUEL1'\n   ** Warning ** In Output:Table:Monthly 'PeakEnergyEndUseOtherFuelsMonthly' invalid Variable or Meter Name 'WATERSYSTEMS:OTHERFUEL1'\n   ** Warning ** In Output:Table:Monthly 'PeakEnergyEndUseOtherFuelsMonthly' invalid Variable or Meter Name 'COGENERATION:OTHERFUEL1'\n   ** Warning ** In Output:Table:Monthly 'PeakEnergyEndUseOtherFuelsMonthly' invalid Variable or Meter Name 'EXTERIOREQUIPMENT:OTHERFUEL2'\n   ** Warning ** In Output:Table:Monthly 'PeakEnergyEndUseOtherFuelsMonthly' invalid Variable or Meter Name 'COOLING:OTHERFUEL2'\n   ** Warning ** In Output:Table:Monthly 'PeakEnergyEndUseOtherFuelsMonthly' invalid Variable or Meter Name 'HEATING:OTHERFUEL2'\n   ** Warning ** In Output:Table:Monthly 'PeakEnergyEndUseOtherFuelsMonthly' invalid Variable or Meter Name 'WATERSYSTEMS:OTHERFUEL2'\n   ** Warning ** In Output:Table:Monthly 'PeakEnergyEndUseOtherFuelsMonthly' invalid Variable or Meter Name 'COGENERATION:OTHERFUEL2'\n   ** Warning ** In Output:Table:Monthly 'UnglazedTranspiredSolarCollectorSummaryMonthly' invalid Variable or Meter Name 'SOLAR COLLECTOR SYSTEM EFFICIENCY'\n   ** Warning ** In Output:Table:Monthly 'UnglazedTranspiredSolarCollectorSummaryMonthly' invalid Variable or Meter Name 'SOLAR COLLECTOR SYSTEM EFFICIENCY'\n   ** Warning ** In Output:Table:Monthly 'UnglazedTranspiredSolarCollectorSummaryMonthly' invalid Variable or Meter Name 'SOLAR COLLECTOR OUTSIDE FACE SUCTION VELOCITY'\n   ** Warning ** In Output:Table:Monthly 'UnglazedTranspiredSolarCollectorSummaryMonthly' invalid Variable or Meter Name 'SOLAR COLLECTOR SENSIBLE HEATING RATE'\n   ** Warning ** In Output:Table:Monthly 'OccupantComfortDataSummaryMonthly' invalid Variable or Meter Name 'ZONE THERMAL COMFORT FANGER MODEL PMV'\n   ** Warning ** In Output:Table:Monthly 'OccupantComfortDataSummaryMonthly' invalid Variable or Meter Name 'ZONE THERMAL COMFORT FANGER MODEL PPD'\n   ** Warning ** In Output:Table:Monthly 'BoilerReportMonthly' invalid Variable or Meter Name 'BOILER GAS CONSUMPTION'\n   ** Warning ** In Output:Table:Monthly 'BoilerReportMonthly' invalid Variable or Meter Name 'BOILER GAS CONSUMPTION RATE'\n   ** Warning ** In Output:Table:Monthly 'DXReportMonthly' invalid Variable or Meter Name 'COOLING COIL ELECTRICITY ENERGY'\n   ** Warning ** In Output:Table:Monthly 'DXReportMonthly' invalid Variable or Meter Name 'COOLING COIL LATENT COOLING ENERGY'\n   ** Warning ** In Output:Table:Monthly 'DXReportMonthly' invalid Variable or Meter Name 'COOLING COIL CRANKCASE HEATER ELECTRICITY ENERGY'\n   ** Warning ** In Output:Table:Monthly 'DXReportMonthly' invalid Variable or Meter Name 'COOLING COIL RUNTIME FRACTION'\n   ** Warning ** In Output:Table:Monthly 'DXReportMonthly' invalid Variable or Meter Name 'COOLING COIL RUNTIME FRACTION'\n   ** Warning ** In Output:Table:Monthly 'DXReportMonthly' invalid Variable or Meter Name 'COOLING COIL LATENT COOLING RATE'\n   ** Warning ** In Output:Table:Monthly 'DXReportMonthly' invalid Variable or Meter Name 'COOLING COIL ELECTRICITY RATE'\n   ** Warning ** In Output:Table:Monthly 'DXReportMonthly' invalid Variable or Meter Name 'COOLING COIL CRANKCASE HEATER ELECTRICITY RATE'\n   ** Warning ** In Output:Table:Monthly 'WindowACReportMonthly' invalid Variable or Meter Name 'ZONE WINDOW AIR CONDITIONER TOTAL COOLING ENERGY'\n   ** Warning ** In Output:Table:Monthly 'WindowACReportMonthly' invalid Variable or Meter Name 'ZONE WINDOW AIR CONDITIONER ELECTRICITY ENERGY'\n   ** Warning ** In Output:Table:Monthly 'WindowACReportMonthly' invalid Variable or Meter Name 'ZONE WINDOW AIR CONDITIONER TOTAL COOLING ENERGY'\n   ** Warning ** In Output:Table:Monthly 'WindowACReportMonthly' invalid Variable or Meter Name 'ZONE WINDOW AIR CONDITIONER SENSIBLE COOLING ENERGY'\n   ** Warning ** In Output:Table:Monthly 'WindowACReportMonthly' invalid Variable or Meter Name 'ZONE WINDOW AIR CONDITIONER LATENT COOLING ENERGY'\n   ** Warning ** In Output:Table:Monthly 'WindowACReportMonthly' invalid Variable or Meter Name 'ZONE WINDOW AIR CONDITIONER TOTAL COOLING RATE'\n   ** Warning ** In Output:Table:Monthly 'WindowACReportMonthly' invalid Variable or Meter Name 'ZONE WINDOW AIR CONDITIONER SENSIBLE COOLING RATE'\n   ** Warning ** In Output:Table:Monthly 'WindowACReportMonthly' invalid Variable or Meter Name 'ZONE WINDOW AIR CONDITIONER LATENT COOLING RATE'\n   ** Warning ** In Output:Table:Monthly 'WindowACReportMonthly' invalid Variable or Meter Name 'ZONE WINDOW AIR CONDITIONER ELECTRICITY RATE'\n   ** Warning ** In Output:Table:Monthly 'WaterHeaterReportMonthly' invalid Variable or Meter Name 'WATER HEATER TOTAL DEMAND HEAT TRANSFER ENERGY'\n   ** Warning ** In Output:Table:Monthly 'WaterHeaterReportMonthly' invalid Variable or Meter Name 'WATER HEATER USE SIDE HEAT TRANSFER ENERGY'\n   ** Warning ** In Output:Table:Monthly 'WaterHeaterReportMonthly' invalid Variable or Meter Name 'WATER HEATER BURNER HEATING ENERGY'\n   ** Warning ** In Output:Table:Monthly 'WaterHeaterReportMonthly' invalid Variable or Meter Name 'WATER HEATER GAS CONSUMPTION'\n   ** Warning ** In Output:Table:Monthly 'WaterHeaterReportMonthly' invalid Variable or Meter Name 'WATER HEATER TOTAL DEMAND HEAT TRANSFER ENERGY'\n   ** Warning ** In Output:Table:Monthly 'WaterHeaterReportMonthly' invalid Variable or Meter Name 'WATER HEATER LOSS DEMAND ENERGY'\n   ** Warning ** In Output:Table:Monthly 'WaterHeaterReportMonthly' invalid Variable or Meter Name 'WATER HEATER HEAT LOSS ENERGY'\n   ** Warning ** In Output:Table:Monthly 'WaterHeaterReportMonthly' invalid Variable or Meter Name 'WATER HEATER TANK TEMPERATURE'\n   ** Warning ** In Output:Table:Monthly 'WaterHeaterReportMonthly' invalid Variable or Meter Name 'WATER HEATER HEAT RECOVERY SUPPLY ENERGY'\n   ** Warning ** In Output:Table:Monthly 'WaterHeaterReportMonthly' invalid Variable or Meter Name 'WATER HEATER SOURCE ENERGY'\n   ** Warning ** In Output:Table:Monthly 'GeneratorReportMonthly' invalid Variable or Meter Name 'GENERATOR PRODUCED AC ELECTRICITY ENERGY'\n   ** Warning ** In Output:Table:Monthly 'GeneratorReportMonthly' invalid Variable or Meter Name 'GENERATOR DIESEL CONSUMPTION'\n   ** Warning ** In Output:Table:Monthly 'GeneratorReportMonthly' invalid Variable or Meter Name 'GENERATOR GAS CONSUMPTION'\n   ** Warning ** In Output:Table:Monthly 'GeneratorReportMonthly' invalid Variable or Meter Name 'GENERATOR PRODUCED AC ELECTRICITY ENERGY'\n   ** Warning ** In Output:Table:Monthly 'GeneratorReportMonthly' invalid Variable or Meter Name 'GENERATOR TOTAL HEAT RECOVERY'\n   ** Warning ** In Output:Table:Monthly 'GeneratorReportMonthly' invalid Variable or Meter Name 'GENERATOR JACKET HEAT RECOVERY ENERGY'\n   ** Warning ** In Output:Table:Monthly 'GeneratorReportMonthly' invalid Variable or Meter Name 'GENERATOR LUBE HEAT RECOVERY'\n   ** Warning ** In Output:Table:Monthly 'GeneratorReportMonthly' invalid Variable or Meter Name 'GENERATOR EXHAUST HEAT RECOVERY ENERGY'\n   ** Warning ** In Output:Table:Monthly 'GeneratorReportMonthly' invalid Variable or Meter Name 'GENERATOR EXHAUST AIR TEMPERATURE'\n   ** Warning ** In Output:Table:Monthly 'DaylightingReportMonthly' invalid Variable or Meter Name 'DAYLIGHTING REFERENCE POINT 2 ILLUMINANCE'\n   ** Warning ** In Output:Table:Monthly 'DaylightingReportMonthly' invalid Variable or Meter Name 'DAYLIGHTING REFERENCE POINT 2 GLARE INDEX'\n   ** Warning ** In Output:Table:Monthly 'DaylightingReportMonthly' invalid Variable or Meter Name 'DAYLIGHTING REFERENCE POINT 2 GLARE INDEX SETPOINT EXCEEDED TIME'\n   ** Warning ** In Output:Table:Monthly 'DaylightingReportMonthly' invalid Variable or Meter Name 'DAYLIGHTING REFERENCE POINT 2 DAYLIGHT ILLUMINANCE SETPOINT EXCEEDED TIME'\n   ** Warning ** In Output:Table:Monthly 'AirLoopSystemEnergyAndWaterUseMonthly' invalid Variable or Meter Name 'AIR SYSTEM NATURAL GAS ENERGY'\n   ** Warning ** In Output:Table:Monthly 'AirLoopSystemComponentEnergyUseMonthly' invalid Variable or Meter Name 'AIR SYSTEM HEATING COIL NATURAL GAS ENERGY'\n   ** Warning ** In Output:Table:Monthly 'AirLoopSystemComponentEnergyUseMonthly' invalid Variable or Meter Name 'AIR SYSTEM HUMIDIFIER NATURAL GAS ENERGY'\n   ** Warning ** Processing Monthly Tabular Reports: Variable names not valid for this simulation\n   **   ~~~   ** ...use Output:Diagnostics,DisplayExtraWarnings; to show more details on individual variables.\n   ** Warning ** More than 4% of time (350.4 hours) uncomfortable in one or more zones \n   **   ~~~   ** Based on ASHRAE 55-2004 graph (Section 5.2.1.1)\n   **   ~~~   ** During Environment [01/01/2006 - 12/31/2006]: RUN PERIOD 1\n   **   ~~~   ** 4211.0 hours were uncomfortable in zone: GROUNDFLOOR_CORE_TZ\n   **   ~~~   ** 3079.8 hours were uncomfortable in zone: GROUNDFLOOR_HALL_S_TZ\n   **   ~~~   ** 3102.3 hours were uncomfortable in zone: GROUNDFLOOR_OFFICES_E_TZ\n   **   ~~~   ** 3033.5 hours were uncomfortable in zone: GROUNDFLOOR_OFFICES_N_TZ\n   **   ~~~   ** 3106.5 hours were uncomfortable in zone: GROUNDFLOOR_OFFICES_W_TZ\n   **   ~~~   ** 4049.3 hours were uncomfortable in zone: MID_CORE_TZ\n   **   ~~~   ** 2958.5 hours were uncomfortable in zone: MID_OFFICES_E_TZ\n   **   ~~~   ** 2893.8 hours were uncomfortable in zone: MID_OFFICES_N_TZ\n   **   ~~~   ** 2931.0 hours were uncomfortable in zone: MID_OFFICES_S_TZ\n   **   ~~~   ** 2981.0 hours were uncomfortable in zone: MID_OFFICES_W_TZ\n   **   ~~~   ** 4254.3 hours were uncomfortable in zone: TOP_CORE_TZ\n   **   ~~~   ** 3110.8 hours were uncomfortable in zone: TOP_OFFICES_E_TZ\n   **   ~~~   ** 3048.0 hours were uncomfortable in zone: TOP_OFFICES_N_TZ\n   **   ~~~   ** 3086.0 hours were uncomfortable in zone: TOP_OFFICES_S_TZ\n   **   ~~~   ** 3113.3 hours were uncomfortable in zone: TOP_OFFICES_W_TZ\n   ************* Simulation Error Summary *************\n   ** Warning ** The following Report Variables were requested but not generated -- check.rdd file\n   **   ~~~   ** Either the IDF did not contain these elements, the variable name is misspelled,\n   **   ~~~   ** or the requested variable is an advanced output which requires Output : Diagnostics, DisplayAdvancedReportVariables;\n   ************* Key=*, VarName=ZONE THERMAL COMFORT FANGER MODEL PMV, Frequency=Hourly\n   ************* Key=*, VarName=ZONE THERMAL COMFORT FANGER MODEL PPD, Frequency=Hourly\n   ************* Key=*, VarName=ZONE THERMAL COMFORT MEAN RADIANT TEMPERATURE, Frequency=Hourly\n   ************* Key=*, VarName=ZONE THERMAL COMFORT OPERATIVE TEMPERATURE, Frequency=Hourly\n   ************* Key=*, VarName=ZONE VENTILATION FAN ELECTRICITY ENERGY, Frequency=Hourly\n   ************* Key=*, VarName=GAS EQUIPMENT TOTAL HEATING ENERGY, Frequency=Monthly\n   ************* There are 96 unused schedules in input.\n   ************* There are 25 unused week schedules in input.\n   ************* There are 82 unused day schedules in input.\n   ************* Use Output:Diagnostics,DisplayUnusedSchedules; to see them.\n   *************\n   ************* ===== Final Error Summary =====\n   ************* The following error categories occurred.  Consider correcting or noting.\n   ************* Loads Initialization did not Converge\n   ************* ..1) very high thermal mass such as very thick concrete (solution: increase max number of warmup\n   ************* ..   days in the BUILDING object);\n   *************",
   "file_paths" : 
   [
      "C:/Users/souvi/AppData/Local/Temp/osmodel-1634119639-1/resources/generated_files",
      "./files",
      "./weather",
      "../../files",
      "../../weather",
      "./"
   ],
   "hash" : "6B14C54C",
   "seed_file" : "../Office_BXL.osm",
   "started_at" : "20211013T170323Z",
   "steps" : 
   [
      {
         "arguments" : {},
         "description" : "Report provides annual and monthly views into heat gains and losses for envelope and internal loads.",
         "measure_dir_name" : "Envelope and Internal Load Breakdown",
         "modeler_description" : "It uses the following variables: Electric Equipment Total Heating Energy, Zone Lights Total Heating Energy, Zone, People Sensible Heating Energy, Surface Average Face Conduction Heat Transfer Energy, Surface Window Heat Gain Energy, Surface Window Heat Loss Energy, Zone Infiltration Sensible Heat Gain Energy, Zone Infiltration Sensible Heat Loss Energy. For Surface Average Face Conduction Heat Transfer Energy bin positive values as heat gain and negative values as heat loss.\n",
         "name" : "Envelope and Internal Load Breakdown",
         "result" : 
         {
            "completed_at" : "20211013T170632Z",
            "measure_class_name" : "EnvelopeAndInternalLoadBreakdown",
            "measure_display_name" : "Envelope and Internal Load Breakdown",
            "measure_name" : "envelope_and_internal_load_breakdown",
            "measure_taxonomy" : "Reporting.QAQC",
            "measure_type" : "ReportingMeasure",
            "measure_uid" : "8f0e1fbb-8bc6-46e5-b6e4-db59177e2c02",
            "measure_version_id" : "37f5d9b0-6fcd-486c-aae7-202f427228b6",
            "measure_version_modified" : "20200910T202208Z",
            "measure_xml_checksum" : "69BA4D91",
            "started_at" : "20211013T170623Z",
            "stderr" : "",
            "stdout" : "",
            "step_errors" : [],
            "step_files" : 
            [
               "C:/Users/souvi/AppData/Local/Temp/osmodel-1634119639-1/resources/run/000_Envelope and Internal Load Breakdown/report.html"
            ],
            "step_final_condition" : "Generated report with 4 sections to ./report.html.",
            "step_info" : [],
            "step_initial_condition" : "Gathering data from EnergyPlus SQL file and OSM model.",
            "step_result" : "Success",
            "step_values" : 
            [
               {
                  "name" : "electric_equipment_total_heating_energy_annual",
                  "units" : "kBtu",
                  "value" : 550989.72923225525
               },
               {
                  "name" : "gas_equipment_total_heating_energy_annual",
                  "units" : "kBtu",
                  "value" : 0.0
               },
               {
                  "name" : "zone_lights_total_heating_energy_annual",
                  "units" : "kBtu",
                  "value" : 183444.49163155386
               },
               {
                  "name" : "zone_people_sensible_heating_energy_annual",
                  "units" : "kBtu",
                  "value" : 231346.42754909652
               },
               {
                  "name" : "zone_infiltration_sensible_heat_gain_energy_annual",
                  "units" : "kBtu",
                  "value" : 60.278157172911321
               },
               {
                  "name" : "surface_window_heat_gain_energy_annual",
                  "units" : "kBtu",
                  "value" : 377736.49581475521
               },
               {
                  "name" : "ext_wall_heat_gain",
                  "units" : "kBtu",
                  "value" : 12589.700000000001
               },
               {
                  "name" : "ext_roof_heat_gain",
                  "units" : "kBtu",
                  "value" : 42073.300000000003
               },
               {
                  "name" : "ground_heat_gain",
                  "units" : "kBtu",
                  "value" : 0.0
               },
               {
                  "name" : "surface_heat_gain",
                  "units" : "kBtu",
                  "value" : 54663.099999999999
               },
               {
                  "name" : "zone_infiltration_sensible_heat_loss_energy_annual",
                  "units" : "kBtu",
                  "value" : 69557.686119837672
               },
               {
                  "name" : "surface_window_heat_loss_energy_annual",
                  "units" : "kBtu",
                  "value" : 547855.4016611554
               },
               {
                  "name" : "ext_wall_heat_loss",
                  "units" : "kBtu",
                  "value" : 52820.300000000003
               },
               {
                  "name" : "ext_roof_heat_loss",
                  "units" : "kBtu",
                  "value" : 88590.600000000006
               },
               {
                  "name" : "ground_heat_loss",
                  "units" : "kBtu",
                  "value" : 0.0
               },
               {
                  "name" : "surface_heat_loss",
                  "units" : "kBtu",
                  "value" : 141411.0
               }
            ],
            "step_warnings" : []
         }
      }
   ],
   "updated_at" : "20211013T170639Z",
   "weather_file" : "BEL_Brussels.064510_IWEC.epw"
}